*****
 OpenBabel06202223583D

 55 59  0  0  0  0  0  0  0  0999 V2000
   -5.0114   -3.7989    3.3478 H   0  0  0  0  0  0  0  0  0  0  0  0
   -5.9175   -3.6793    3.9388 C   0  0  0  0  0  0  0  0  0  0  0  0
   -7.0177   -4.4911    3.6592 C   0  0  0  0  0  0  0  0  0  0  0  0
   -5.9750   -2.7387    4.9754 C   0  0  0  0  0  0  0  0  0  0  0  0
   -6.9619   -5.2245    2.8579 H   0  0  0  0  0  0  0  0  0  0  0  0
   -8.1872   -4.3767    4.4144 C   0  0  0  0  0  0  0  0  0  0  0  0
   -7.1580   -2.6348    5.7267 C   0  0  0  0  0  0  0  0  0  0  0  0
   -4.7829   -1.8783    5.3051 C   0  0  0  0  0  0  0  0  0  0  0  0
   -9.0223   -5.0354    4.1883 H   0  0  0  0  0  0  0  0  0  0  0  0
   -8.2677   -3.4515    5.4608 C   0  0  0  0  0  0  0  0  0  0  0  0
   -7.2137   -1.9096    6.5347 H   0  0  0  0  0  0  0  0  0  0  0  0
   -4.7154   -0.6610    4.4966 N   0  0  0  0  0  0  0  0  0  0  0  0
   -3.8510   -2.4351    5.1464 H   0  0  0  0  0  0  0  0  0  0  0  0
   -4.7875   -1.5855    6.3617 H   0  0  0  0  0  0  0  0  0  0  0  0
   -5.1800    0.5877    4.8698 C   0  0  0  0  0  0  0  0  0  0  0  0
   -4.0000   -0.5554    3.3301 C   0  0  0  0  0  0  0  0  0  0  0  0
   -5.9605    0.9917    5.9674 C   0  0  0  0  0  0  0  0  0  0  0  0
   -4.6909    1.5149    3.9318 C   0  0  0  0  0  0  0  0  0  0  0  0
   -3.5355   -1.4231    2.8759 H   0  0  0  0  0  0  0  0  0  0  0  0
   -3.9653    0.7742    2.9538 C   0  0  0  0  0  0  0  0  0  0  0  0
   -6.3635    0.2868    6.6856 H   0  0  0  0  0  0  0  0  0  0  0  0
   -6.1998    2.3547    6.1385 C   0  0  0  0  0  0  0  0  0  0  0  0
   -4.9817    2.8792    4.1431 C   0  0  0  0  0  0  0  0  0  0  0  0
   -3.1296    1.3948    1.5651 S   0  0  0  0  0  0  0  0  0  0  0  0
   -6.9147    2.7580    7.1951 F   0  0  0  0  0  0  0  0  0  0  0  0
   -5.7132    3.2983    5.2519 C   0  0  0  0  0  0  0  0  0  0  0  0
   -4.5506    3.8051    3.2723 F   0  0  0  0  0  0  0  0  0  0  0  0
   -4.3763    2.0278    0.5022 C   0  0  0  0  0  0  0  0  0  0  0  0
   -2.5169    0.2230    0.9738 O   0  0  0  0  0  0  0  0  0  0  0  0
   -2.3309    2.4994    2.0594 O   0  0  0  0  0  0  0  0  0  0  0  0
   -5.8990    4.3523    5.4234 H   0  0  0  0  0  0  0  0  0  0  0  0
   -3.8160    2.2756   -0.8715 C   0  0  0  0  0  0  0  0  0  0  0  0
   -4.7932    2.9488    0.9137 H   0  0  0  0  0  0  0  0  0  0  0  0
   -5.1643    1.2717    0.4267 H   0  0  0  0  0  0  0  0  0  0  0  0
   -2.8523    3.2661   -0.9598 N   0  0  0  0  0  0  0  0  0  0  0  0
   -4.3093    1.6685   -1.8214 O   0  0  0  0  0  0  0  0  0  0  0  0
   -2.3173    3.7127   -2.1651 C   0  0  0  0  0  0  0  0  0  0  0  0
   -2.4936    3.7128   -0.1230 H   0  0  0  0  0  0  0  0  0  0  0  0
   -2.6561    3.2646   -3.3778 N   0  0  0  0  0  0  0  0  0  0  0  0
   -1.3487    4.7456   -2.2827 C   0  0  0  0  0  0  0  0  0  0  0  0
   -1.9567    4.0203   -4.2924 O   0  0  0  0  0  0  0  0  0  0  0  0
   -0.8690    5.3110   -1.4989 H   0  0  0  0  0  0  0  0  0  0  0  0
   -1.1874    4.9254   -3.6365 C   0  0  0  0  0  0  0  0  0  0  0  0
   -0.4296    5.8649   -4.4843 C   0  0  0  0  0  0  0  0  0  0  0  0
    0.0164    5.3519   -5.3425 H   0  0  0  0  0  0  0  0  0  0  0  0
   -1.0966    6.6448   -4.8668 H   0  0  0  0  0  0  0  0  0  0  0  0
    0.3736    6.3505   -3.9227 H   0  0  0  0  0  0  0  0  0  0  0  0
   -9.4560   -3.3461    6.2901 C   0  0  0  0  0  0  0  0  0  0  0  0
   -9.5994   -3.0052    7.6534 C   0  0  0  0  0  0  0  0  0  0  0  0
  -10.7503   -3.5634    5.8677 C   0  0  0  0  0  0  0  0  0  0  0  0
   -8.8277   -2.7602    8.3772 H   0  0  0  0  0  0  0  0  0  0  0  0
  -10.8702   -3.0046    8.0593 N   0  0  0  0  0  0  0  0  0  0  0  0
  -11.1741   -3.8350    4.9116 H   0  0  0  0  0  0  0  0  0  0  0  0
  -11.5498   -3.3488    6.9544 N   0  0  0  0  0  0  0  0  0  0  0  0
  -12.5600   -3.4129    7.0128 H   0  0  0  0  0  0  0  0  0  0  0  0
  2  3  2  0  0  0  0
  2  1  1  0  0  0  0
  3  6  1  0  0  0  0
  3  5  1  0  0  0  0
  4  7  2  0  0  0  0
  4  2  1  0  0  0  0
  6 10  2  0  0  0  0
  6  9  1  0  0  0  0
  7 11  1  0  0  0  0
  8  4  1  0  0  0  0
  8 13  1  0  0  0  0
  8 14  1  0  0  0  0
 10 48  1  0  0  0  0
 10  7  1  0  0  0  0
 12  8  1  0  0  0  0
 12 15  1  0  0  0  0
 15 18  2  0  0  0  0
 15 17  1  0  0  0  0
 16 12  1  0  0  0  0
 16 19  1  0  0  0  0
 17 22  2  0  0  0  0
 17 21  1  0  0  0  0
 20 18  1  0  0  0  0
 20 16  2  0  0  0  0
 22 25  1  0  0  0  0
 22 26  1  0  0  0  0
 23 27  1  0  0  0  0
 23 18  1  0  0  0  0
 24 29  2  0  0  0  0
 24 30  2  0  0  0  0
 24 20  1  0  0  0  0
 26 23  2  0  0  0  0
 26 31  1  0  0  0  0
 28 24  1  0  0  0  0
 28 33  1  0  0  0  0
 28 34  1  0  0  0  0
 32 36  2  0  0  0  0
 32 28  1  0  0  0  0
 35 32  1  0  0  0  0
 35 38  1  0  0  0  0
 37 35  1  0  0  0  0
 37 39  2  0  0  0  0
 39 41  1  0  0  0  0
 40 37  1  0  0  0  0
 40 42  1  0  0  0  0
 43 41  1  0  0  0  0
 43 40  2  0  0  0  0
 44 43  1  0  0  0  0
 44 45  1  0  0  0  0
 44 46  1  0  0  0  0
 44 47  1  0  0  0  0
 48 50  2  0  0  0  0
 48 49  1  0  0  0  0
 49 52  2  0  0  0  0
 49 51  1  0  0  0  0
 50 53  1  0  0  0  0
 52 54  1  0  0  0  0
 54 50  1  0  0  0  0
 54 55  1  0  0  0  0
M  END
$$$$
