*****
 OpenBabel06162216373D

 24 25  0  0  0  0  0  0  0  0999 V2000
   -5.2522   -0.9606    0.5131 O   0  0  0  0  0  0  0  0  0  0  0  0
   -6.5398   -0.9551    0.6899 N   0  0  0  0  0  0  0  0  0  0  0  0
   -6.9623   -2.2329    0.7026 C   0  0  0  0  0  0  0  0  0  0  0  0
   -5.8612   -3.0737    0.5143 C   0  0  0  0  0  0  0  0  0  0  0  0
   -4.7879   -2.1847    0.4139 C   0  0  0  0  0  0  0  0  0  0  0  0
   -3.3390   -2.4669    0.1662 C   0  0  0  0  0  0  0  0  0  0  0  0
   -5.8377   -4.5702    0.4021 C   0  0  0  0  0  0  0  0  0  0  0  0
   -6.9285   -5.2640   -0.1647 C   0  0  0  0  0  0  0  0  0  0  0  0
   -6.9064   -6.6568   -0.2835 C   0  0  0  0  0  0  0  0  0  0  0  0
   -5.8002   -7.3807    0.1574 C   0  0  0  0  0  0  0  0  0  0  0  0
   -4.7097   -6.7130    0.7121 C   0  0  0  0  0  0  0  0  0  0  0  0
   -4.7225   -5.3198    0.8302 C   0  0  0  0  0  0  0  0  0  0  0  0
   -7.7865   -4.7365   -0.5499 H   0  0  0  0  0  0  0  0  0  0  0  0
   -7.7478   -7.1743   -0.7261 H   0  0  0  0  0  0  0  0  0  0  0  0
   -3.8706   -4.8472    1.2795 H   0  0  0  0  0  0  0  0  0  0  0  0
   -8.3995   -2.5758    0.9606 C   0  0  0  0  0  0  0  0  0  0  0  0
   -8.7097   -2.0986    1.9135 H   0  0  0  0  0  0  0  0  0  0  0  0
   -8.5832   -3.6554    1.0911 H   0  0  0  0  0  0  0  0  0  0  0  0
   -9.0324   -2.1779    0.1405 H   0  0  0  0  0  0  0  0  0  0  0  0
   -2.8789   -2.9943    1.0219 H   0  0  0  0  0  0  0  0  0  0  0  0
   -2.7906   -1.5083    0.0531 H   0  0  0  0  0  0  0  0  0  0  0  0
   -3.2218   -3.0550   -0.7678 H   0  0  0  0  0  0  0  0  0  0  0  0
   -5.7858   -8.4590    0.0647 H   0  0  0  0  0  0  0  0  0  0  0  0
   -3.8507   -7.2758    1.0545 H   0  0  0  0  0  0  0  0  0  0  0  0
  1  2  1  0  0  0  0
  1  5  1  0  0  0  0
  2  3  2  0  0  0  0
  3  4  1  0  0  0  0
  3 16  1  0  0  0  0
  4  7  1  0  0  0  0
  5  4  2  0  0  0  0
  5  6  1  0  0  0  0
  6 20  1  0  0  0  0
  6 21  1  0  0  0  0
  6 22  1  0  0  0  0
  7  8  2  0  0  0  0
  8  9  1  0  0  0  0
  8 13  1  0  0  0  0
  9 10  2  0  0  0  0
  9 14  1  0  0  0  0
 10 11  1  0  0  0  0
 10 23  1  0  0  0  0
 11 12  2  0  0  0  0
 11 24  1  0  0  0  0
 12  7  1  0  0  0  0
 12 15  1  0  0  0  0
 16 17  1  0  0  0  0
 16 18  1  0  0  0  0
 16 19  1  0  0  0  0
M  END
$$$$
